EXPID:  FVadvection
EXPDSC: FVadvection_(ESMF07_EXAMPLE)_5x4_Deg
